applications/Interdependent/experiments/experiment-standard/input/time_1/flow/links.txt
id,current,real_power_from,reactive_power_from,real_power_to,reactive_power_to,resistance,reactance,susceptance,rateA,rateB,rateC,ratio,angle,angmin,angmax
1,75.8735382663868,71.9547015892221,24.0689577727593,-71.9547015892221,-20.7530445387403,0,0.0576,0,250,250,250,0,0,-360,360
2,31.1384510399781,30.7282802797368,-0.585850822642109,-30.5546855580545,-13.6879504994214,0.017,0.092,0.158,250,250,250,0,0,-360,360
3,63.1927279350144,-59.4453144419448,-16.3120495005786,60.8938658327666,-12.4274695310885,0.039,0.17,0.358,150,150,150,0,0,-360,360
4,85.0782897533167,85,-3.64902553420954,-85,7.89067835119624,0,0.0586,0,300,300,300,0,0,-360,360
5,24.4468143576254,24.1061341672334,4.53679117989143,-24.0106477789416,-24.4007624407768,0.0119,0.1008,0.209,150,150,150,0,0,-360,360
6,77.8424364885931,-75.9893522210576,-10.5992375592228,76.4955643427941,0.256239469722547,0.0085,0.072,0.149,250,250,250,0,0,-360,360
7,163.640138892798,-163,2.27618987940867,163,14.4601195311253,0,0.0625,0,250,250,250,0,0,-360,360
8,86.8728950690646,86.5044356572031,-2.53242934913005,-84.0398868653504,-14.2819829877994,0.032,0.161,0.306,250,250,250,0,0,-360,360
9,56.7512415780669,-40.9601131346442,-35.7180170121986,41.2264213094819,21.3388953613841,0.01,0.085,0.176,250,250,250,0,0,-360,360
10,163.640138892798,-163,2.27618987940867,163,14.4601195311253,0,0.0625,0,250,250,250,0,0,-360,360
11,86.8728950690646,86.5044356572031,-2.53242934913005,-84.0398868653504,-14.2819829877994,0.032,0.161,0.306,250,250,250,0,0,-360,360
